/batch
/config,noeldb,1     ! force off writing results to database
*get,_wallstrt,active,,time,wall
! ANSYS input file written by Workbench version 2026 R1
! File used for geometry attach: C:\Users\Mateus\OneDrive\Documentos\UnB\4 sem\PI\Chassi\Final chassis\chassis.stp
/title,chassi ansys--Static Structural (A5)
! ****** Begin Custom Load Command Snippet ******
/COM, ACT Extensions:
/COM,     LSDYNA, 2026.1
/COM,     5f463412-bd3e-484b-87e7-cbc0a665e474, wbex
/COM,     ANSYSMotion, 2026.1
/COM,     20180725-3f81-49eb-9f31-41364844c769, wbex
! ****** End   Custom Load Command Snippet ******
*DIM,_wb_ProjectScratch_dir,string,248
_wb_ProjectScratch_dir(1) = 'C:\Users\Mateus\OneDrive\Documentos\UnB\4 sem\PI\Chassi\_ProjectScratch\Scr2875\'
*DIM,_wb_SolverFiles_dir,string,248
_wb_SolverFiles_dir(1) = 'C:\Users\Mateus\OneDrive\Documentos\UnB\4 sem\PI\Chassi\chassi ansys_files\dp0\SYS\MECH\'
*DIM,_wb_userfiles_dir,string,248
_wb_userfiles_dir(1) = 'C:\Users\Mateus\OneDrive\Documentos\UnB\4 sem\PI\Chassi\chassi ansys_files\user_files\'
/com,--- Data in consistent MKS units. See Solving Units in the help system for more information.
/units,MKS
/nopr
/wb,file,start              !  signify a WB generated input file
/prep7
! Turn off shape checking because checks already performed inside WB mesher.
! See help system for more information.
SHPP,OFF,,NOWARN
/nolist
etcon,set             ! allow ANSYS to choose best KEYOP's for 180x elements, resets any applicable keyopt to MAPDL defaults
/com,*********** Send User Defined Coordinate System(s) ***********
csys,0
/com,*********** Nodes for the whole assembly ***********
nblock,3,,7586
(1i9,3e20.9e3)
        1    -4.675000000E-02     2.900000000E-02     1.330000000E-02
        2    -5.125000000E-02     2.900000000E-02     1.330000000E-02
        3    -4.900000000E-02     2.675000000E-02     1.330000000E-02
        4    -4.900000000E-02     3.125000000E-02     1.330000000E-02
        5     3.675000000E-02     2.900000000E-02     1.330000000E-02
        6     4.125000000E-02     2.900000000E-02     1.330000000E-02
        7     3.900000000E-02     3.125000000E-02     1.330000000E-02
        8     3.900000000E-02     2.675000000E-02     1.330000000E-02
        9    -4.675000000E-02    -2.900000000E-02     1.330000000E-02
       10    -5.125000000E-02    -2.900000000E-02     1.330000000E-02
       11    -4.900000000E-02    -3.125000000E-02     1.330000000E-02
       12    -4.900000000E-02    -2.675000000E-02     1.330000000E-02
       13     3.675000000E-02    -2.900000000E-02     1.330000000E-02
       14     4.125000000E-02    -2.900000000E-02     1.330000000E-02
       15     3.900000000E-02    -2.675000000E-02     1.330000000E-02
       16     3.900000000E-02    -3.125000000E-02     1.330000000E-02
       17     4.145000000E-02     2.900000000E-02     1.850000000E-02
       18     3.655000000E-02     2.900000000E-02     1.850000000E-02
       19     3.900000000E-02     2.655000000E-02     1.850000000E-02
       20     3.900000000E-02     3.145000000E-02     1.850000000E-02
! ... 6878 like lines cut
/wb,elem,start            !  set before creation of elements
/com,*********** Elements for Body 1 'Part2|PartBody' ***********
et,1,187
MAT,1 $ TYPE,1 $ REAL,1 $ SECNUM,1 $ ESYS,0    ! ELEMNODES = 10
eblock,21,COMPACT,,925
(21i9)
        1        6        8      398        7      423      432      427      422      428      430
        2        6       19      398        8      425      493      427      423      431      432
        3        6       19       17      398      425      467      424      427      493      475
        4        6       17       20      398      424      468      426      427      475      501
        5       17       19       20      398      467      486      468      475      493      501
        6        5      398        8        7      421      432      417      416      430      428
        7        5      398       19        8      421      493      419      417      432      431
        8        6      398       20        7      427      501      426      422      430      429
        9       18      398       20       19      485      501      477      476      493      486
       10        5      398       18       19      421      485      418      419      493      476
       11        5       20       18      398      420      477      418      421      501      485
       12        5       20      398        7      420      501      421      416      429      430
       13       10       12      397       11      440      449      444      439      445      447
       14       10       27      397       12      442      560      444      440      448      449
       15       10       27       25      397      442      536      441      444      560      544
       16       10       25       28      397      441      537      443      444      544      568
       17       25       27       28      397      536      552      537      544      560      568
       18        9      397       12       11      438      449      434      433      447      445
       19        9      397       27       12      438      560      436      434      449      448
       20       10      397       28       11      444      568      443      439      447      446
! ... 906 like lines cut
secnum,1    ! reset the section ID to default
! Material Id = {279C825C-9071-4707-AB8E-6677881B2C1D}
/com,*********** Elements for Body 2 '1st level|PartBody' ***********
et,2,187
MAT,2 $ TYPE,2 $ REAL,2 $ SECNUM,2 $ ESYS,0    ! ELEMNODES = 10
eblock,21,COMPACT,,2303
(21i9)
      926     2147     2522     2163     2911     3145     3309     3141     3147     5508     3312
      927     2477     2811     2522     2911     5302     5507     5298     5303     6656     5508
      928     2163     2811     2911     2522     3310     6656     3312     3309     5507     5508
      929     2314     2474     2911     2810     4474     5282     4478     4476     5281     6655
      930     2147     2163     2833     2911     3141     3311     3146     3147     3312     6721
      931     2477     2810     2811     2911     5301     6654     5302     5303     6655     6656
      932     2147     2833     2191     2911     3146     3507     3142     3147     6721     3509
      933     2163     2164     2833     2911     3307     3322     3311     3312     3323     6721
      934     2164     2833     2911     2190     3322     6721     3323     3316     3491     3493
      935     2190     2191     2833     2911     3482     3507     3491     3493     3509     6721
      936     2148     2833     2910     2191     3156     6720     3157     3150     3507     3508
      937     2191     2532     2910     2478     3501     5520     3508     3500     5308     5311
      938     2189     2910     2191     2532     3481     3508     3469     3475     5520     3501
      939     2189     2822     2833     2910     3478     6680     3479     3481     6682     6720
      940     2148     2822     2910     2833     3155     6682     3157     3156     6680     6720
      941     2148     2910     2478     2191     3157     5311     3152     3150     3508     3500
      942     2189     2822     2910     2517     3478     6682     3481     3474     5499     5501
      943     2150     2910     2822     2517     3178     6682     3177     3175     5501     5499
      944     2478     2910     2491     2517     5311     5383     5305     5306     5501     5381
      945     2148     2910     2491     2478     3157     5383     3153     3152     5311     5305
! ... 2284 like lines cut
secnum,1    ! reset the section ID to default
! Material Id = {129D747A-5EBD-49B6-B216-8D7C167D3BE9}
/wb,elem,end               !  done creating elements
toffst,273.15,      ! Temperature offset from absolute zero
/com,*********** Set Reference Temperature ***********
tref,22.
/wb,mat,start              !  starting to send materials
/com,*********** Send Materials ***********
MP,EX,1,3500000000,	! Pa
MP,NUXY,1,0.36,
MP,DENS,1,1240,	! kg m^-3
MP,UVID,1,5cdeb2f3-901b-4a52-935e-462f929d72ae

MP,EX,2,3500000000,	! Pa
MP,NUXY,2,0.36,
MP,DENS,2,1240,	! kg m^-3
MP,UVID,2,5cdeb2f3-901b-4a52-935e-462f929d72ae

/wb,mat,end                !  done sending materials
!************************* Model Summary ********************
! Part2|PartBody,	PLA,	matid,	1
! 1st level|PartBody,	PLA,	matid,	2
!************************* End Model Summary ********************
! get the diagonal of the bounding box. Needed later for other things
*get,_xmin,node,,mnloc,x
*get,_ymin,node,,mnloc,y
*get,_zmin,node,,mnloc,z
*get,_xmax,node,,mxloc,x
*get,_ymax,node,,mxloc,y
*get,_zmax,node,,mxloc,z
_ASMDIAG=(_xmax-_xmin)*(_xmax-_xmin)+(_ymax-_ymin)*(_ymax-_ymin)+(_zmax-_zmin)*(_zmax-_zmin)
_ASMDIAG=SQRT(_ASMDIAG)
/wb,contact,start          !  starting to send contact
/com,*********** Create Contact "Contact Region" ***********
/com,            Real Constant Set For Above Contact Is 4 & 3 
*set,tid,4
*set,cid,3
r,tid
r,cid
et,tid,170
et,cid,174
MAT,4 $ TYPE,4 $ REAL,4 $ SECNUM,4 $ ESYS,0    ! ELEMNODES = 8
eblock,21,COMPACT,,96
(21i9)
     5665       17       19        6        6      467      425        6      424
     5666       19       18        5        5      476      418        5      419
     5667        5        8       19       19      417      431       19      419
     5668        8        6       19       19      423      425       19      431
     5669        7        5       20       20      416      420       20      429
     5670       20       17        6        6      468      424        6      426
     5671       18       20        5        5      477      420        5      418
     5672        6        7       20       20      422      429       20      426
     5673        1        4       31       31      400      414       31      402
     5674        4        2       31       31      406      408       31      414
     5675       31       30        1        1      579      401        1      402
     5676       29       31        2        2      569      408        2      407
     5677       27       26        9        9      545      435        9      436
     5678        9       12       27       27      434      448       27      436
     5679       25       27       10       10      536      442       10      441
     5680       12       10       27       27      440      442       27      448
     5681       28       25       10       10      537      441       10      443
     5682       26       28        9        9      546      437        9      435
     5683       10       11       28       28      439      446       28      443
     5684       11        9       28       28      433      437       28      446
! ... 77 like lines cut
secnum,1    ! reset the section ID to default
MAT,3 $ TYPE,3 $ REAL,3 $ SECNUM,3 $ ESYS,0    ! ELEMNODES = 8
eblock,21,COMPACT,,96
(21i9)
     5761       17       19        6        6      467      425        6      424
     5762       19       18        5        5      476      418        5      419
     5763        5        8       19       19      417      431       19      419
     5764        8        6       19       19      423      425       19      431
     5765        7        5       20       20      416      420       20      429
     5766       20       17        6        6      468      424        6      426
     5767       18       20        5        5      477      420        5      418
     5768        6        7       20       20      422      429       20      426
     5769        1        4       31       31      400      414       31      402
     5770        4        2       31       31      406      408       31      414
     5771       31       30        1        1      579      401        1      402
     5772       29       31        2        2      569      408        2      407
     5773       27       26        9        9      545      435        9      436
     5774        9       12       27       27      434      448       27      436
     5775       25       27       10       10      536      442       10      441
     5776       12       10       27       27      440      442       27      448
     5777       28       25       10       10      537      441       10      443
     5778       26       28        9        9      546      437        9      435
     5779       10       11       28       28      439      446       28      443
     5780       11        9       28       28      433      437       28      446
! ... 77 like lines cut
secnum,1    ! reset the section ID to default
MAT,3 $ TYPE,3 $ REAL,4 $ SECNUM,3 $ ESYS,0    ! ELEMNODES = 8
eblock,21,COMPACT,,79
(21i9)
     5857     2193     2195     2197     2197     3522     3537     2197     3523
     5858     2195     2666     2187     2187     3544     3456     2187     3448
     5859     2187     2197     2195     2195     3449     3537     2195     3448
     5860     2195     2196     2666     2666     3536     3551     2666     3544
     5861     2196     2195     2194     2194     3536     3529     2194     3530
     5862     2198     2193     2197     2197     3524     3523     2197     3552
     5863     2197     2665     2198     2198     3559     3567     2198     3552
     5864     2194     2665     2196     2196     3535     3550     2196     3530
     5865     2665     2194     2198     2198     3535     3531     2198     3567
     5866     2199     2201     2203     2203     3568     3582     2203     3569
     5867     2202     2201     2200     2200     3581     3575     2200     3576
     5868     2191     2203     2201     2201     3497     3582     2201     3495
     5869     2201     2202     2191     2191     3581     3496     2191     3495
     5870     2200     2204     2202     2202     3577     3590     2202     3576
     5871     2204     2199     2203     2203     3570     3569     2203     3598
     5872     2664     2202     2204     2204     3597     3590     2204     3613
     5873     2203     2664     2204     2204     3605     3613     2204     3598
     5874     2193     2215     2195     2195     3526     3538     2195     3522
     5875     2213     2215     2193     2193     3723     3526     2193     3525
     5876     2194     2214     2198     2198     3532     3561     2198     3531
! ... 60 like lines cut
secnum,1    ! reset the section ID to default
MAT,4 $ TYPE,4 $ REAL,3 $ SECNUM,4 $ ESYS,0    ! ELEMNODES = 8
eblock,21,COMPACT,,79
(21i9)
     5936     2193     2195     2197     2197     3522     3537     2197     3523
     5937     2195     2666     2187     2187     3544     3456     2187     3448
     5938     2187     2197     2195     2195     3449     3537     2195     3448
     5939     2195     2196     2666     2666     3536     3551     2666     3544
     5940     2196     2195     2194     2194     3536     3529     2194     3530
     5941     2198     2193     2197     2197     3524     3523     2197     3552
     5942     2197     2665     2198     2198     3559     3567     2198     3552
     5943     2194     2665     2196     2196     3535     3550     2196     3530
     5944     2665     2194     2198     2198     3535     3531     2198     3567
     5945     2199     2201     2203     2203     3568     3582     2203     3569
     5946     2202     2201     2200     2200     3581     3575     2200     3576
     5947     2191     2203     2201     2201     3497     3582     2201     3495
     5948     2201     2202     2191     2191     3581     3496     2191     3495
     5949     2200     2204     2202     2202     3577     3590     2202     3576
     5950     2204     2199     2203     2203     3570     3569     2203     3598
     5951     2664     2202     2204     2204     3597     3590     2204     3613
     5952     2203     2664     2204     2204     3605     3613     2204     3598
     5953     2193     2215     2195     2195     3526     3538     2195     3522
     5954     2213     2215     2193     2193     3723     3526     2193     3525
     5955     2194     2214     2198     2198     3532     3561     2198     3531
! ... 60 like lines cut
secnum,1    ! reset the section ID to default
keyo,cid,8,2               ! auto create asymmetric contact (from Program Controlled setting)
keyo,cid,10,0              ! adjust contact stiffness each NR iteration (from Program Controlled setting)
keyo,cid,12,5              ! bonded always
keyo,cid,18,1              ! small sliding turned on by application
keyo,cid,2,2               ! MPC for bonded contacts (from Program Controlled setting)
keyo,tid,5,0               ! Automatic constraint type detection
keyo,cid,4,2               ! on nodal point - normal to target surface (from Program Controlled setting)
keyo,cid,9,1               ! ignore initial gaps/penetration
keyo,cid,7,0               ! No Prediction
rmod,tid,3,10.      ! FKN
rmod,tid,5,0.       ! ICONT
rmod,tid,6,0.       ! PINB
rmod,tid,10,0.      ! CNOF
rmod,tid,12,0.      ! FKT
rmod,tid,36,2278    ! WB DSID
rmod,cid,3,10.      ! FKN
rmod,cid,5,0.       ! ICONT
rmod,cid,6,0.       ! PINB
rmod,cid,10,0.      ! CNOF
rmod,cid,12,0.      ! FKT
rmod,cid,36,2278    ! WB DSID
nsel,all
esel,all
/wb,contact,end            !  done creating contacts
/golist
/wb,load,start             !  starting to send loads
/com,*********** Fixed Supports ***********
CMBLOCK,_FIXEDSU,NODE,       48
(8i10)
      2116     -2123      2362     -2385      2942     -2944      2951     -2954
      2958     -2961      2968      2969      2976      2977      2985      4653
     -4656      4663     -4665      4669     -4672      4679      4680      4687
      4688      4697      4708     -4710      4715     -4718      4724     -4726
      4733      4734      4740     -4742      4750      4759     -4762      4769
     -4771      4776     -4779      4785      4786      4793      4794      4803
cmsel,s,_FIXEDSU
d,all,all
nsel,all
/com,******* Constant Zero Displacement Z *******
CMBLOCK,_DISPZEROUZ,NODE,      317
(8i10)
      2124      2136     -2184      2387      2389      2404     -2427      2667
     -2799      2822     -2843      2923      2924      2927      2928      2938
      2947      2949      2950      2965     -2967      2970     -2972      2975
      2989     -2991      2996      2998      3002      3003      3070      3073
      3079     -3081      3086     -3088      3092     -3094      3097     -3099
      3101     -3106      3109     -3112      3115     -3117      3120     -3122
      3127     -3129      3138      3140      3141      3146      3155      3156
      3159     -3161      3169      3177      3179      3180      3188     -3190
      3194      3200      3201      3205      3212      3213      3216      3217
      3222      3223      3226      3232      3233      3236      3243      3244
      3246      3249      3256      3257      3259      3266      3267      3270
      3271      3277      3280     -3282      3289      3296      3297      3299
      3303      3307      3311      3315      3320     -3322      3325      3330
     -3332      3335     -3337      3341     -3344      3347     -3349      3352
     -3354      3358     -3360      3366      3367      3373     -3375      3377
     -3383      3385     -3392      3394     -3399      3402     -3404      3407
     -3409      3411     -3417      3419      4660     -4662      4673      4677
      4678      4684     -4686      4698     -4700      4702      4712     -4714
      4727      4728      4732      4737     -4739      4753      4754      4756
      4763      4764      4767      4768      4783      4784      4787      4788
! ... 20 like lines cut
cmsel,s,_DISPZEROUZ
d,all,uz,0
nsel,all
/com,*********** Define Force Using Surface Effect Elements ***********
local,12,0,0.,0.,0.,0.,0.,0.
csys,0
et,5,154
MAT,5 $ TYPE,5 $ REAL,5 $ SECNUM,5 $ ESYS,12    ! ELEMNODES = 8
eblock,21,COMPACT,,151
(21i9)
     6015     2866     2907     2877     2877     6818     6852     2877     6815
     6016     2853     2901     2874     2874     6753     6845     2874     6751
     6017     2860     2879     2901     2901     6786     6856     2901     6790
     6018     2853     2862     2872     2872     6749     6797     2872     6750
     6019     2883     2902     2906     2906     6861     6885     2906     6863
     6020     2253     2254     2865     2865     4129     4148     2865     4138
     6021     2858     2878     2875     2875     6778     6847     2875     6776
     6022     2867     2871     2892     2892     6819     6834     2892     6821
     6023     2855     2889     2868     2868     6765     6825     2868     6762
     6024     2855     2868     2864     2864     6762     6808     2864     6761
     6025     2855     2880     2857     2857     6764     6773     2857     6760
     6026     2858     2876     2897     2897     6777     6849     2897     6779
     6027     2875     2878     2904     2904     6847     6853     2904     6848
     6028     2861     2885     2887     2887     6793     6866     2887     6794
     6029     2855     2869     2880     2880     6763     6826     2880     6764
     6030     2859     2894     2874     2874     6784     6844     2874     6781
     6031     2857     2873     2900     2900     6772     6840     2900     6774
     6032     2858     2875     2876     2876     6776     6846     2876     6777
     6033     2861     2898     2885     2885     6796     6868     2885     6793
     6034     2863     2882     2903     2903     6802     6860     2903     6806
! ... 132 like lines cut
secnum,1    ! reset the section ID to default
esel,s,type,,5
keyop,5,2,1         ! Apply load in local coordinate system
keyop,5,7,1         ! Use original area so load is constant in large deformation
esel,all
/com,*********** Define Force Using Surface Effect Elements ***********
local,13,0,0.,0.,0.,0.,0.,0.
csys,0
et,6,154
MAT,6 $ TYPE,6 $ REAL,6 $ SECNUM,6 $ ESYS,13    ! ELEMNODES = 8
eblock,21,COMPACT,,284
(21i9)
     6166      302      321      359      359     1938     2024      359     1940
     6167      324      305      331      331     1951     1952      331     2031
     6168      296      328      381      381     1906     2043      381     1909
     6169      329      343      383      383     2044     2079      383     2046
     6170      329      362      387      387     2045     2102      387     2047
     6171      313      353      349      349     1988     2092      349     1987
     6172      299      370      347      347     1925     2087      347     1924
     6173      303      386      343      343     1945     2080      343     1943
     6174      296      315      393      393     1905     1998      393     1910
     6175      314      367      394      394     1991     2109      394     1993
     6176      309      360      342      342     1971     2075      342     1970
     6177      337      368      359      359     2065     2098      359     2064
     6178      304      323      351      351     1947     2029      351     1948
     6179      318      339      378      378     2007     2069      378     2010
     6180      335      357      374      374     2060     2097      374     2061
     6181      299      335      374      374     1923     2061      374     1927
     6182      319      390      391      391     2017     2115      391     2018
     6183      315      337      375      375     1994     2066      375     1997
     6184      311      351      341      341     1981     2074      341     1980
     6185      300      345      369      369     1929     2082      369     1931
! ... 265 like lines cut
secnum,1    ! reset the section ID to default
esel,s,type,,6
keyop,6,2,1         ! Apply load in local coordinate system
keyop,6,7,1         ! Use original area so load is constant in large deformation
esel,all
/gst,on,on
fini
*get,_numnode,node,0,count
*get,_numelem,elem,0,count
*get, _MAXELEMNUM, elem, 0, NUM, MAX
*get, _MAXNODENUM, node, 0, NUM, MAX
*get, _MAXELEMTYPE, etyp, 0, NUM, MAX
*get, _MAXREALCONST, rcon, 0, NUM, MAX
/go
/wb,load,end               !  done creating loads
/com,--- Number of total nodes = %_numnode%
/com,--- Number of contact elements = 785
/com,--- Number of spring elements = 0
/com,--- Number of bearing elements = 0
/com,--- Number of solid elements = 3228
/com,--- Number of condensed parts = 0
/com,--- Number of total elements = %_numelem%
*get,_wallbsol,active,,time,wall
/com,****************************************************************************
/com,*************************    SOLUTION       ********************************
/com,****************************************************************************
/solu
antype,0                   ! static analysis
_thickRatio=  0     ! Ratio of thick parts in the model
eqsl,sparse,,,,,1
cntr,print,1               ! print out contact info and also make no initial contact an error
cncheck,dmp		!	Enable program controlled contact splitting for distributed memory parallel run
dmpoption,emat,no             ! Don't combine emat file for DANSYS
dmpoption,esav,no             ! Don't combine esav file for DANSYS
nldiag,cont,iter           ! print out contact info each equilibrium iteration
rescontrol,,none                 ! Do not keep any restart files
/com,****************************************************
/com,******************* SOLVE FOR LS 1 OF 1 ****************
esel,s,type,,5
nsle
sfe,all,1,pres,1,0.
sfe,all,2,pres,1,0.
sfe,all,3,pres,1,-243.939393939321
esel,s,type,,6
nsle
sfe,all,1,pres,1,0.
sfe,all,2,pres,1,0.
sfe,all,3,pres,1,-188.461538461482
nsel,all
esel,all
acel,-15.,0.,0.
/nopr
/gopr
nsub,1,1,1
time,1.
outres,erase
outres,all,none
outres,nsol,all,
outres,rsol,all
outres,eangl,all
outres,etmp,all
outres,veng,all
outres,strs,all,
outres,epel,all,
outres,eppl,all,
outres,cont,all,
! *********** WB SOLVE COMMAND ***********
! check interactive state
*get,ANSINTER_,active,,int
*if,ANSINTER_,ne,0,then
/eof
*endif
solve
/com *************** Write FE CONNECTORS ********* 
CEWRITE,file,ce,,INTE
/com,****************************************************
/com,*************** FINISHED SOLVE FOR LS 1 *************
fini
*get,_wallasol,active,,time,wall
/nopr
*get,_numnode,node,0,count
*get,_numelem,elem,0,count
*get, _MAXELEMNUM, elem, 0, NUM, MAX
*get, _MAXNODENUM, node, 0, NUM, MAX,,,INTERNAL
*get, _MAXELEMTYPE, etyp, 0, NUM, MAX
*get, _MAXREALCONST, rcon, 0, NUM, MAX
*get,_NSOLTHREADS,active,0,ntfs
*get,_NSOLPROCESSES,active,0,npfs
/gopr
/post1
xmlo,ENCODING,ISO-8859-1
xmlo,parm
/xml,parm,xml
fini
/gopr
*get,_walldone,active,,time,wall
_preptime=(_wallbsol-_wallstrt)*3600
_solvtime=(_wallasol-_wallbsol)*3600
_posttime=(_walldone-_wallasol)*3600
_totaltim=(_walldone-_wallstrt)*3600
*get,_dlbratio,active,0,solu,dlbr
*get,_combtime,active,0,solu,comb
*get,_ssmode,active,0,solu,ssmm
*get,_ndofs,active,0,solu,ndof
*get,_sol_end_time,active,0,set,time
*if,_sol_end_time,eq,1.000000,then
/fclean				!clean distributed files
*endif
/com,--- Total number of nodes = %_numnode%
/com,--- Total number of elements = %_numelem%
/com,--- Element load balance ratio = %_dlbratio%
/com,--- Time to combine distributed files = %_combtime%
/com,--- Sparse memory mode = %_ssmode%
/com,--- Number of DOF = %_ndofs%
/wb,file,end               ! done with WB generated input
